&grid_nml
ni=NI_GLB
nj=NJ_GLB
dirsrc='FIXDIR'
dirout='OUTDIR'
fv3dir='MOSAICDIR'
topofile='TOPOGFILE'
editsfile='EDITSFILE'
res=RESNAME
editmask=DO_MASKEDIT
debug=DO_DEBUG
do_postwgts=DO_POSTWGTS
/
